Circuit: * D:\TCC2\GitHub\TCC_2\src\hardware\Main_Test.asc

.OP point found by inspection.
.step v1=0
.step v1=0.5
.step v1=1
.step v1=1.5
.step v1=2
.step v1=2.5
.step v1=3
.step v1=3.5
.step v1=4
.step v1=4.5
.step v1=5
.step v1=5.04

Date: Mon Nov 30 20:52:18 2020
Total elapsed time: 0.130 seconds.

tnom = 27
temp = 27
method = trap
totiter = 229
traniter = 0
tranpoints = 0
accept = 0
rejected = 0
matrix size = 3
fillins = 0
solver = Normal
Matrix Compiler1: 50 bytes object code size  0.1/0.0/[0.0]
Matrix Compiler2: 175 bytes object code size  0.1/0.1/[0.0]

